
No compatibility mode selected!


Circuit: * transient analysis of dff

vol: 1
vmid: 2.5
voh: 4
t_sample: 3.8E-07
itr1: 1f
itr2: 1f
start of while: search: 1
iteration: 1
Doing analysis at TEMP = 27.000000 and TNOM = 27.000000

Note: Starting true gmin stepping
Trying gmin =   1.0000E-03 Warning: Further gmin increment
Trying gmin =   5.6234E-03 Warning: Further gmin increment
Trying gmin =   8.6596E-03 Warning: Further gmin increment
Trying gmin =   9.6466E-03 Warning: Further gmin increment
Trying gmin =   9.9105E-03 Warning: Further gmin increment
Trying gmin =   9.9775E-03 Warning: Further gmin increment
Trying gmin =   9.9944E-03 Warning: Further gmin increment
Trying gmin =   9.9986E-03 Warning: Further gmin increment
Trying gmin =   9.9996E-03 Warning: Last gmin step failed
Warning: True gmin stepping failed
Note: Starting dynamic gmin stepping
Trying gmin =   1.0000E-03 Note: One successful gmin step
Trying gmin =   1.0000E-04 Note: One successful gmin step
Trying gmin =   1.0000E-05 Note: One successful gmin step
Trying gmin =   1.0000E-06 Note: One successful gmin step
Trying gmin =   1.0000E-07 Note: One successful gmin step
Trying gmin =   1.0000E-08 Note: One successful gmin step
Trying gmin =   1.0000E-09 Note: One successful gmin step
Trying gmin =   1.0000E-10 Note: One successful gmin step
Trying gmin =   1.0000E-11 Note: One successful gmin step
Trying gmin =   1.0000E-12 Note: One successful gmin step
Trying gmin =   1.0000E-12 Note: One successful gmin step
Note: Dynamic gmin stepping completed

Initial Transient Solution
--------------------------

Node                                   Voltage
----                                   -------
vdd                                          0
vss                                          0
ck_s                                         0
ck                                           0
d_s                                          5
d                                            5
rn_s                                         5
rn                                           5
xdut.x7                            2.81559e-55
xdut.nslv                         -7.66091e-67
xdut.x4                           -1.40094e-55
xdut.nck                           7.80824e-67
xdut.nmas                         -2.81548e-58
xdut.x1                            1.84633e-58
xdut.mas                           7.18739e-56
xdut.x6                           -1.22387e-59
xdut.slv                           2.75581e-56
xdut.rst                           2.82302e-26
q                                  7.73197e-67
xdut.x2                           -1.37155e-60
xdut.x5                            4.09221e-67
xdut.x8                            1.50858e-58
xdut.x3                           -3.15911e-55
vrn#branch                                   0
vd#branch                                    0
vck#branch                                   0
vvss#branch                        5.74384e-38
vvdd#branch                        2.91995e-38


No. of Data Rows : 40575
tt__rn_rise         =  3.023017e-11 targ=  3.350424e-07 trig=  3.350121e-07
tt__ck_rise         =  3.089353e-11 targ=  3.050450e-07 trig=  3.050141e-07
td__rn_rise__ck_rise=  -2.999760e-08 targ=  3.050297e-07 trig=  3.350273e-07
q_voltage           =  1.101728e-08
tt__ck_rise: 3.08935E-11
tt__rn_rise: 3.02302E-11
td__rn_rise__ck_rise: -2.99976E-08
q_voltage: 1.10173E-08
captured: 0
not captured step back delay
this t_rndelay: 5E-08
next t_rndelay: 3.749E-08
incr: 1.25E-08
end of while: search: 1
start of while: search: 1
iteration: 2
Doing analysis at TEMP = 27.000000 and TNOM = 27.000000

Note: Starting true gmin stepping
Trying gmin =   1.0000E-03 Warning: Further gmin increment
Trying gmin =   5.6234E-03 Warning: Further gmin increment
Trying gmin =   8.6596E-03 Warning: Further gmin increment
Trying gmin =   9.6466E-03 Warning: Further gmin increment
Trying gmin =   9.9105E-03 Warning: Further gmin increment
Trying gmin =   9.9775E-03 Warning: Further gmin increment
Trying gmin =   9.9944E-03 Warning: Further gmin increment
Trying gmin =   9.9986E-03 Warning: Further gmin increment
Trying gmin =   9.9996E-03 Warning: Last gmin step failed
Warning: True gmin stepping failed
Note: Starting dynamic gmin stepping
Trying gmin =   1.0000E-03 Note: One successful gmin step
Trying gmin =   1.0000E-04 Note: One successful gmin step
Trying gmin =   1.0000E-05 Note: One successful gmin step
Trying gmin =   1.0000E-06 Note: One successful gmin step
Trying gmin =   1.0000E-07 Note: One successful gmin step
Trying gmin =   1.0000E-08 Note: One successful gmin step
Trying gmin =   1.0000E-09 Note: One successful gmin step
Trying gmin =   1.0000E-10 Note: One successful gmin step
Trying gmin =   1.0000E-11 Note: One successful gmin step
Trying gmin =   1.0000E-12 Note: One successful gmin step
Trying gmin =   1.0000E-12 Note: One successful gmin step
Note: Dynamic gmin stepping completed

Initial Transient Solution
--------------------------

Node                                   Voltage
----                                   -------
vdd                                          0
vss                                          0
ck_s                                         0
ck                                           0
d_s                                          5
d                                            5
rn_s                                         5
rn                                           5
xdut.x7                            2.81559e-55
xdut.nslv                         -7.66091e-67
xdut.x4                           -1.40094e-55
xdut.nck                           7.80824e-67
xdut.nmas                         -2.81548e-58
xdut.x1                            1.84633e-58
xdut.mas                           7.18739e-56
xdut.x6                           -1.22387e-59
xdut.slv                           2.75581e-56
xdut.rst                           2.82302e-26
q                                  7.73197e-67
xdut.x2                           -1.37155e-60
xdut.x5                            4.09221e-67
xdut.x8                            1.50858e-58
xdut.x3                           -3.15911e-55
vrn#branch                                   0
vd#branch                                    0
vck#branch                                   0
vvss#branch                        5.74384e-38
vvdd#branch                        2.91995e-38


No. of Data Rows : 40575
tt__rn_rise         =  3.023020e-11 targ=  3.225324e-07 trig=  3.225021e-07
tt__ck_rise         =  3.089353e-11 targ=  3.050450e-07 trig=  3.050141e-07
td__rn_rise__ck_rise=  -1.748760e-08 targ=  3.050297e-07 trig=  3.225173e-07
q_voltage           =  1.101728e-08
tt__ck_rise: 3.08935E-11
tt__rn_rise: 3.02302E-11
td__rn_rise__ck_rise: -1.74876E-08
q_voltage: 1.10173E-08
captured: 0
not captured step back delay
this t_rndelay: 3.749E-08
next t_rndelay: 2.498E-08
incr: 1.25E-08
end of while: search: 1
start of while: search: 1
iteration: 3
Doing analysis at TEMP = 27.000000 and TNOM = 27.000000

Note: Starting true gmin stepping
Trying gmin =   1.0000E-03 Warning: Further gmin increment
Trying gmin =   5.6234E-03 Warning: Further gmin increment
Trying gmin =   8.6596E-03 Warning: Further gmin increment
Trying gmin =   9.6466E-03 Warning: Further gmin increment
Trying gmin =   9.9105E-03 Warning: Further gmin increment
Trying gmin =   9.9775E-03 Warning: Further gmin increment
Trying gmin =   9.9944E-03 Warning: Further gmin increment
Trying gmin =   9.9986E-03 Warning: Further gmin increment
Trying gmin =   9.9996E-03 Warning: Last gmin step failed
Warning: True gmin stepping failed
Note: Starting dynamic gmin stepping
Trying gmin =   1.0000E-03 Note: One successful gmin step
Trying gmin =   1.0000E-04 Note: One successful gmin step
Trying gmin =   1.0000E-05 Note: One successful gmin step
Trying gmin =   1.0000E-06 Note: One successful gmin step
Trying gmin =   1.0000E-07 Note: One successful gmin step
Trying gmin =   1.0000E-08 Note: One successful gmin step
Trying gmin =   1.0000E-09 Note: One successful gmin step
Trying gmin =   1.0000E-10 Note: One successful gmin step
Trying gmin =   1.0000E-11 Note: One successful gmin step
Trying gmin =   1.0000E-12 Note: One successful gmin step
Trying gmin =   1.0000E-12 Note: One successful gmin step
Note: Dynamic gmin stepping completed

Initial Transient Solution
--------------------------

Node                                   Voltage
----                                   -------
vdd                                          0
vss                                          0
ck_s                                         0
ck                                           0
d_s                                          5
d                                            5
rn_s                                         5
rn                                           5
xdut.x7                            2.81559e-55
xdut.nslv                         -7.66091e-67
xdut.x4                           -1.40094e-55
xdut.nck                           7.80824e-67
xdut.nmas                         -2.81548e-58
xdut.x1                            1.84633e-58
xdut.mas                           7.18739e-56
xdut.x6                           -1.22387e-59
xdut.slv                           2.75581e-56
xdut.rst                           2.82302e-26
q                                  7.73197e-67
xdut.x2                           -1.37155e-60
xdut.x5                            4.09221e-67
xdut.x8                            1.50858e-58
xdut.x3                           -3.15911e-55
vrn#branch                                   0
vd#branch                                    0
vck#branch                                   0
vvss#branch                        5.74384e-38
vvdd#branch                        2.91995e-38


No. of Data Rows : 40575
tt__rn_rise         =  3.023024e-11 targ=  3.100224e-07 trig=  3.099921e-07
tt__ck_rise         =  3.089353e-11 targ=  3.050450e-07 trig=  3.050141e-07
td__rn_rise__ck_rise=  -4.977596e-09 targ=  3.050297e-07 trig=  3.100073e-07
q_voltage           =  1.101727e-08
tt__ck_rise: 3.08935E-11
tt__rn_rise: 3.02302E-11
td__rn_rise__ck_rise: -4.9776E-09
q_voltage: 1.10173E-08
captured: 0
not captured step back delay
this t_rndelay: 2.498E-08
next t_rndelay: 1.247E-08
incr: 1.25E-08
end of while: search: 1
start of while: search: 1
iteration: 4
Doing analysis at TEMP = 27.000000 and TNOM = 27.000000

Note: Starting true gmin stepping
Trying gmin =   1.0000E-03 Warning: Further gmin increment
Trying gmin =   5.6234E-03 Warning: Further gmin increment
Trying gmin =   8.6596E-03 Warning: Further gmin increment
Trying gmin =   9.6466E-03 Warning: Further gmin increment
Trying gmin =   9.9105E-03 Warning: Further gmin increment
Trying gmin =   9.9775E-03 Warning: Further gmin increment
Trying gmin =   9.9944E-03 Warning: Further gmin increment
Trying gmin =   9.9986E-03 Warning: Further gmin increment
Trying gmin =   9.9996E-03 Warning: Last gmin step failed
Warning: True gmin stepping failed
Note: Starting dynamic gmin stepping
Trying gmin =   1.0000E-03 Note: One successful gmin step
Trying gmin =   1.0000E-04 Note: One successful gmin step
Trying gmin =   1.0000E-05 Note: One successful gmin step
Trying gmin =   1.0000E-06 Note: One successful gmin step
Trying gmin =   1.0000E-07 Note: One successful gmin step
Trying gmin =   1.0000E-08 Note: One successful gmin step
Trying gmin =   1.0000E-09 Note: One successful gmin step
Trying gmin =   1.0000E-10 Note: One successful gmin step
Trying gmin =   1.0000E-11 Note: One successful gmin step
Trying gmin =   1.0000E-12 Note: One successful gmin step
Trying gmin =   1.0000E-12 Note: One successful gmin step
Note: Dynamic gmin stepping completed

Initial Transient Solution
--------------------------

Node                                   Voltage
----                                   -------
vdd                                          0
vss                                          0
ck_s                                         0
ck                                           0
d_s                                          5
d                                            5
rn_s                                         5
rn                                           5
xdut.x7                            2.81559e-55
xdut.nslv                         -7.66091e-67
xdut.x4                           -1.40094e-55
xdut.nck                           7.80824e-67
xdut.nmas                         -2.81548e-58
xdut.x1                            1.84633e-58
xdut.mas                           7.18739e-56
xdut.x6                           -1.22387e-59
xdut.slv                           2.75581e-56
xdut.rst                           2.82302e-26
q                                  7.73197e-67
xdut.x2                           -1.37155e-60
xdut.x5                            4.09221e-67
xdut.x8                            1.50858e-58
xdut.x3                           -3.15911e-55
vrn#branch                                   0
vd#branch                                    0
vck#branch                                   0
vvss#branch                        5.74384e-38
vvdd#branch                        2.91995e-38


No. of Data Rows : 40575
tt__rn_rise         =  3.020730e-11 targ=  2.975123e-07 trig=  2.974821e-07
tt__ck_rise         =  3.087326e-11 targ=  3.050450e-07 trig=  3.050141e-07
td__rn_rise__ck_rise=  7.532443e-09 targ=  3.050297e-07 trig=  2.974973e-07
q_voltage           =  5.000000e+00
tt__ck_rise: 3.08733E-11
tt__rn_rise: 3.02073E-11
td__rn_rise__ck_rise: 7.53244E-09
q_voltage: 5
captured: 1
captured increase delay
this t_rndelay: 1.247E-08
next t_rndelay: 1.872E-08
incr: 6.25E-09
end of while: search: 1
start of while: search: 1
iteration: 5
Doing analysis at TEMP = 27.000000 and TNOM = 27.000000

Note: Starting true gmin stepping
Trying gmin =   1.0000E-03 Warning: Further gmin increment
Trying gmin =   5.6234E-03 Warning: Further gmin increment
Trying gmin =   8.6596E-03 Warning: Further gmin increment
Trying gmin =   9.6466E-03 Warning: Further gmin increment
Trying gmin =   9.9105E-03 Warning: Further gmin increment
Trying gmin =   9.9775E-03 Warning: Further gmin increment
Trying gmin =   9.9944E-03 Warning: Further gmin increment
Trying gmin =   9.9986E-03 Warning: Further gmin increment
Trying gmin =   9.9996E-03 Warning: Last gmin step failed
Warning: True gmin stepping failed
Note: Starting dynamic gmin stepping
Trying gmin =   1.0000E-03 Note: One successful gmin step
Trying gmin =   1.0000E-04 Note: One successful gmin step
Trying gmin =   1.0000E-05 Note: One successful gmin step
Trying gmin =   1.0000E-06 Note: One successful gmin step
Trying gmin =   1.0000E-07 Note: One successful gmin step
Trying gmin =   1.0000E-08 Note: One successful gmin step
Trying gmin =   1.0000E-09 Note: One successful gmin step
Trying gmin =   1.0000E-10 Note: One successful gmin step
Trying gmin =   1.0000E-11 Note: One successful gmin step
Trying gmin =   1.0000E-12 Note: One successful gmin step
Trying gmin =   1.0000E-12 Note: One successful gmin step
Note: Dynamic gmin stepping completed

Initial Transient Solution
--------------------------

Node                                   Voltage
----                                   -------
vdd                                          0
vss                                          0
ck_s                                         0
ck                                           0
d_s                                          5
d                                            5
rn_s                                         5
rn                                           5
xdut.x7                            2.81559e-55
xdut.nslv                         -7.66091e-67
xdut.x4                           -1.40094e-55
xdut.nck                           7.80824e-67
xdut.nmas                         -2.81548e-58
xdut.x1                            1.84633e-58
xdut.mas                           7.18739e-56
xdut.x6                           -1.22387e-59
xdut.slv                           2.75581e-56
xdut.rst                           2.82302e-26
q                                  7.73197e-67
xdut.x2                           -1.37155e-60
xdut.x5                            4.09221e-67
xdut.x8                            1.50858e-58
xdut.x3                           -3.15911e-55
vrn#branch                                   0
vd#branch                                    0
vck#branch                                   0
vvss#branch                        5.74384e-38
vvdd#branch                        2.91995e-38


No. of Data Rows : 40575
tt__rn_rise         =  3.020730e-11 targ=  3.037623e-07 trig=  3.037321e-07
tt__ck_rise         =  3.087315e-11 targ=  3.050450e-07 trig=  3.050141e-07
td__rn_rise__ck_rise=  1.282443e-09 targ=  3.050297e-07 trig=  3.037473e-07
q_voltage           =  5.000000e+00
tt__ck_rise: 3.08731E-11
tt__rn_rise: 3.02073E-11
td__rn_rise__ck_rise: 1.28244E-09
q_voltage: 5
captured: 1
captured increase delay
this t_rndelay: 1.872E-08
next t_rndelay: 2.497E-08
incr: 6.25E-09
end of while: search: 1
start of while: search: 1
iteration: 6
Doing analysis at TEMP = 27.000000 and TNOM = 27.000000

Note: Starting true gmin stepping
Trying gmin =   1.0000E-03 Warning: Further gmin increment
Trying gmin =   5.6234E-03 Warning: Further gmin increment
Trying gmin =   8.6596E-03 Warning: Further gmin increment
Trying gmin =   9.6466E-03 Warning: Further gmin increment
Trying gmin =   9.9105E-03 Warning: Further gmin increment
Trying gmin =   9.9775E-03 Warning: Further gmin increment
Trying gmin =   9.9944E-03 Warning: Further gmin increment
Trying gmin =   9.9986E-03 Warning: Further gmin increment
Trying gmin =   9.9996E-03 Warning: Last gmin step failed
Warning: True gmin stepping failed
Note: Starting dynamic gmin stepping
Trying gmin =   1.0000E-03 Note: One successful gmin step
Trying gmin =   1.0000E-04 Note: One successful gmin step
Trying gmin =   1.0000E-05 Note: One successful gmin step
Trying gmin =   1.0000E-06 Note: One successful gmin step
Trying gmin =   1.0000E-07 Note: One successful gmin step
Trying gmin =   1.0000E-08 Note: One successful gmin step
Trying gmin =   1.0000E-09 Note: One successful gmin step
Trying gmin =   1.0000E-10 Note: One successful gmin step
Trying gmin =   1.0000E-11 Note: One successful gmin step
Trying gmin =   1.0000E-12 Note: One successful gmin step
Trying gmin =   1.0000E-12 Note: One successful gmin step
Note: Dynamic gmin stepping completed

Initial Transient Solution
--------------------------

Node                                   Voltage
----                                   -------
vdd                                          0
vss                                          0
ck_s                                         0
ck                                           0
d_s                                          5
d                                            5
rn_s                                         5
rn                                           5
xdut.x7                            2.81559e-55
xdut.nslv                         -7.66091e-67
xdut.x4                           -1.40094e-55
xdut.nck                           7.80824e-67
xdut.nmas                         -2.81548e-58
xdut.x1                            1.84633e-58
xdut.mas                           7.18739e-56
xdut.x6                           -1.22387e-59
xdut.slv                           2.75581e-56
xdut.rst                           2.82302e-26
q                                  7.73197e-67
xdut.x2                           -1.37155e-60
xdut.x5                            4.09221e-67
xdut.x8                            1.50858e-58
xdut.x3                           -3.15911e-55
vrn#branch                                   0
vd#branch                                    0
vck#branch                                   0
vvss#branch                        5.74384e-38
vvdd#branch                        2.91995e-38


No. of Data Rows : 40575
tt__rn_rise         =  3.023024e-11 targ=  3.100124e-07 trig=  3.099821e-07
tt__ck_rise         =  3.089353e-11 targ=  3.050450e-07 trig=  3.050141e-07
td__rn_rise__ck_rise=  -4.967596e-09 targ=  3.050297e-07 trig=  3.099973e-07
q_voltage           =  1.101727e-08
tt__ck_rise: 3.08935E-11
tt__rn_rise: 3.02302E-11
td__rn_rise__ck_rise: -4.9676E-09
q_voltage: 1.10173E-08
captured: 0
not captured step back delay
this t_rndelay: 2.497E-08
next t_rndelay: 2.1835E-08
incr: 3.125E-09
end of while: search: 1
start of while: search: 1
iteration: 7
Doing analysis at TEMP = 27.000000 and TNOM = 27.000000

Note: Starting true gmin stepping
Trying gmin =   1.0000E-03 Warning: Further gmin increment
Trying gmin =   5.6234E-03 Warning: Further gmin increment
Trying gmin =   8.6596E-03 Warning: Further gmin increment
Trying gmin =   9.6466E-03 Warning: Further gmin increment
Trying gmin =   9.9105E-03 Warning: Further gmin increment
Trying gmin =   9.9775E-03 Warning: Further gmin increment
Trying gmin =   9.9944E-03 Warning: Further gmin increment
Trying gmin =   9.9986E-03 Warning: Further gmin increment
Trying gmin =   9.9996E-03 Warning: Last gmin step failed
Warning: True gmin stepping failed
Note: Starting dynamic gmin stepping
Trying gmin =   1.0000E-03 Note: One successful gmin step
Trying gmin =   1.0000E-04 Note: One successful gmin step
Trying gmin =   1.0000E-05 Note: One successful gmin step
Trying gmin =   1.0000E-06 Note: One successful gmin step
Trying gmin =   1.0000E-07 Note: One successful gmin step
Trying gmin =   1.0000E-08 Note: One successful gmin step
Trying gmin =   1.0000E-09 Note: One successful gmin step
Trying gmin =   1.0000E-10 Note: One successful gmin step
Trying gmin =   1.0000E-11 Note: One successful gmin step
Trying gmin =   1.0000E-12 Note: One successful gmin step
Trying gmin =   1.0000E-12 Note: One successful gmin step
Note: Dynamic gmin stepping completed

Initial Transient Solution
--------------------------

Node                                   Voltage
----                                   -------
vdd                                          0
vss                                          0
ck_s                                         0
ck                                           0
d_s                                          5
d                                            5
rn_s                                         5
rn                                           5
xdut.x7                            2.81559e-55
xdut.nslv                         -7.66091e-67
xdut.x4                           -1.40094e-55
xdut.nck                           7.80824e-67
xdut.nmas                         -2.81548e-58
xdut.x1                            1.84633e-58
xdut.mas                           7.18739e-56
xdut.x6                           -1.22387e-59
xdut.slv                           2.75581e-56
xdut.rst                           2.82302e-26
q                                  7.73197e-67
xdut.x2                           -1.37155e-60
xdut.x5                            4.09221e-67
xdut.x8                            1.50858e-58
xdut.x3                           -3.15911e-55
vrn#branch                                   0
vd#branch                                    0
vck#branch                                   0
vvss#branch                        5.74384e-38
vvdd#branch                        2.91995e-38


No. of Data Rows : 40576
tt__rn_rise         =  3.023026e-11 targ=  3.068774e-07 trig=  3.068471e-07
tt__ck_rise         =  3.089353e-11 targ=  3.050450e-07 trig=  3.050141e-07
td__rn_rise__ck_rise=  -1.832596e-09 targ=  3.050297e-07 trig=  3.068623e-07
q_voltage           =  1.101727e-08
tt__ck_rise: 3.08935E-11
tt__rn_rise: 3.02303E-11
td__rn_rise__ck_rise: -1.8326E-09
q_voltage: 1.10173E-08
captured: 0
not captured step back delay
this t_rndelay: 2.1835E-08
next t_rndelay: 1.87E-08
incr: 3.125E-09
end of while: search: 1
start of while: search: 1
iteration: 8
Doing analysis at TEMP = 27.000000 and TNOM = 27.000000

Note: Starting true gmin stepping
Trying gmin =   1.0000E-03 Warning: Further gmin increment
Trying gmin =   5.6234E-03 Warning: Further gmin increment
Trying gmin =   8.6596E-03 Warning: Further gmin increment
Trying gmin =   9.6466E-03 Warning: Further gmin increment
Trying gmin =   9.9105E-03 Warning: Further gmin increment
Trying gmin =   9.9775E-03 Warning: Further gmin increment
Trying gmin =   9.9944E-03 Warning: Further gmin increment
Trying gmin =   9.9986E-03 Warning: Further gmin increment
Trying gmin =   9.9996E-03 Warning: Last gmin step failed
Warning: True gmin stepping failed
Note: Starting dynamic gmin stepping
Trying gmin =   1.0000E-03 Note: One successful gmin step
Trying gmin =   1.0000E-04 Note: One successful gmin step
Trying gmin =   1.0000E-05 Note: One successful gmin step
Trying gmin =   1.0000E-06 Note: One successful gmin step
Trying gmin =   1.0000E-07 Note: One successful gmin step
Trying gmin =   1.0000E-08 Note: One successful gmin step
Trying gmin =   1.0000E-09 Note: One successful gmin step
Trying gmin =   1.0000E-10 Note: One successful gmin step
Trying gmin =   1.0000E-11 Note: One successful gmin step
Trying gmin =   1.0000E-12 Note: One successful gmin step
Trying gmin =   1.0000E-12 Note: One successful gmin step
Note: Dynamic gmin stepping completed

Initial Transient Solution
--------------------------

Node                                   Voltage
----                                   -------
vdd                                          0
vss                                          0
ck_s                                         0
ck                                           0
d_s                                          5
d                                            5
rn_s                                         5
rn                                           5
xdut.x7                            2.81559e-55
xdut.nslv                         -7.66091e-67
xdut.x4                           -1.40094e-55
xdut.nck                           7.80824e-67
xdut.nmas                         -2.81548e-58
xdut.x1                            1.84633e-58
xdut.mas                           7.18739e-56
xdut.x6                           -1.22387e-59
xdut.slv                           2.75581e-56
xdut.rst                           2.82302e-26
q                                  7.73197e-67
xdut.x2                           -1.37155e-60
xdut.x5                            4.09221e-67
xdut.x8                            1.50858e-58
xdut.x3                           -3.15911e-55
vrn#branch                                   0
vd#branch                                    0
vck#branch                                   0
vvss#branch                        5.74384e-38
vvdd#branch                        2.91995e-38


No. of Data Rows : 40575
tt__rn_rise         =  3.020730e-11 targ=  3.037423e-07 trig=  3.037121e-07
tt__ck_rise         =  3.087316e-11 targ=  3.050450e-07 trig=  3.050141e-07
td__rn_rise__ck_rise=  1.302443e-09 targ=  3.050297e-07 trig=  3.037273e-07
q_voltage           =  5.000000e+00
tt__ck_rise: 3.08732E-11
tt__rn_rise: 3.02073E-11
td__rn_rise__ck_rise: 1.30244E-09
q_voltage: 5
captured: 1
captured increase delay
this t_rndelay: 1.87E-08
next t_rndelay: 2.02625E-08
incr: 1.5625E-09
end of while: search: 1
start of while: search: 1
iteration: 9
Doing analysis at TEMP = 27.000000 and TNOM = 27.000000

Note: Starting true gmin stepping
Trying gmin =   1.0000E-03 Warning: Further gmin increment
Trying gmin =   5.6234E-03 Warning: Further gmin increment
Trying gmin =   8.6596E-03 Warning: Further gmin increment
Trying gmin =   9.6466E-03 Warning: Further gmin increment
Trying gmin =   9.9105E-03 Warning: Further gmin increment
Trying gmin =   9.9775E-03 Warning: Further gmin increment
Trying gmin =   9.9944E-03 Warning: Further gmin increment
Trying gmin =   9.9986E-03 Warning: Further gmin increment
Trying gmin =   9.9996E-03 Warning: Last gmin step failed
Warning: True gmin stepping failed
Note: Starting dynamic gmin stepping
Trying gmin =   1.0000E-03 Note: One successful gmin step
Trying gmin =   1.0000E-04 Note: One successful gmin step
Trying gmin =   1.0000E-05 Note: One successful gmin step
Trying gmin =   1.0000E-06 Note: One successful gmin step
Trying gmin =   1.0000E-07 Note: One successful gmin step
Trying gmin =   1.0000E-08 Note: One successful gmin step
Trying gmin =   1.0000E-09 Note: One successful gmin step
Trying gmin =   1.0000E-10 Note: One successful gmin step
Trying gmin =   1.0000E-11 Note: One successful gmin step
Trying gmin =   1.0000E-12 Note: One successful gmin step
Trying gmin =   1.0000E-12 Note: One successful gmin step
Note: Dynamic gmin stepping completed

Initial Transient Solution
--------------------------

Node                                   Voltage
----                                   -------
vdd                                          0
vss                                          0
ck_s                                         0
ck                                           0
d_s                                          5
d                                            5
rn_s                                         5
rn                                           5
xdut.x7                            2.81559e-55
xdut.nslv                         -7.66091e-67
xdut.x4                           -1.40094e-55
xdut.nck                           7.80824e-67
xdut.nmas                         -2.81548e-58
xdut.x1                            1.84633e-58
xdut.mas                           7.18739e-56
xdut.x6                           -1.22387e-59
xdut.slv                           2.75581e-56
xdut.rst                           2.82302e-26
q                                  7.73197e-67
xdut.x2                           -1.37155e-60
xdut.x5                            4.09221e-67
xdut.x8                            1.50858e-58
xdut.x3                           -3.15911e-55
vrn#branch                                   0
vd#branch                                    0
vck#branch                                   0
vvss#branch                        5.74384e-38
vvdd#branch                        2.91995e-38


No. of Data Rows : 40575
tt__rn_rise         =  3.022114e-11 targ=  3.053054e-07 trig=  3.052751e-07
tt__ck_rise         =  3.089353e-11 targ=  3.050450e-07 trig=  3.050141e-07
td__rn_rise__ck_rise=  -2.605853e-10 targ=  3.050297e-07 trig=  3.052903e-07
q_voltage           =  1.101727e-08
tt__ck_rise: 3.08935E-11
tt__rn_rise: 3.02211E-11
td__rn_rise__ck_rise: -2.60585E-10
q_voltage: 1.10173E-08
captured: 0
not captured step back delay
this t_rndelay: 2.02625E-08
next t_rndelay: 1.94712E-08
incr: 7.8125E-10
end of while: search: 1
start of while: search: 1
iteration: 10
Doing analysis at TEMP = 27.000000 and TNOM = 27.000000

Note: Starting true gmin stepping
Trying gmin =   1.0000E-03 Warning: Further gmin increment
Trying gmin =   5.6234E-03 Warning: Further gmin increment
Trying gmin =   8.6596E-03 Warning: Further gmin increment
Trying gmin =   9.6466E-03 Warning: Further gmin increment
Trying gmin =   9.9105E-03 Warning: Further gmin increment
Trying gmin =   9.9775E-03 Warning: Further gmin increment
Trying gmin =   9.9944E-03 Warning: Further gmin increment
Trying gmin =   9.9986E-03 Warning: Further gmin increment
Trying gmin =   9.9996E-03 Warning: Last gmin step failed
Warning: True gmin stepping failed
Note: Starting dynamic gmin stepping
Trying gmin =   1.0000E-03 Note: One successful gmin step
Trying gmin =   1.0000E-04 Note: One successful gmin step
Trying gmin =   1.0000E-05 Note: One successful gmin step
Trying gmin =   1.0000E-06 Note: One successful gmin step
Trying gmin =   1.0000E-07 Note: One successful gmin step
Trying gmin =   1.0000E-08 Note: One successful gmin step
Trying gmin =   1.0000E-09 Note: One successful gmin step
Trying gmin =   1.0000E-10 Note: One successful gmin step
Trying gmin =   1.0000E-11 Note: One successful gmin step
Trying gmin =   1.0000E-12 Note: One successful gmin step
Trying gmin =   1.0000E-12 Note: One successful gmin step
Note: Dynamic gmin stepping completed

Initial Transient Solution
--------------------------

Node                                   Voltage
----                                   -------
vdd                                          0
vss                                          0
ck_s                                         0
ck                                           0
d_s                                          5
d                                            5
rn_s                                         5
rn                                           5
xdut.x7                            2.81559e-55
xdut.nslv                         -7.66091e-67
xdut.x4                           -1.40094e-55
xdut.nck                           7.80824e-67
xdut.nmas                         -2.81548e-58
xdut.x1                            1.84633e-58
xdut.mas                           7.18739e-56
xdut.x6                           -1.22387e-59
xdut.slv                           2.75581e-56
xdut.rst                           2.82302e-26
q                                  7.73197e-67
xdut.x2                           -1.37155e-60
xdut.x5                            4.09221e-67
xdut.x8                            1.50858e-58
xdut.x3                           -3.15911e-55
vrn#branch                                   0
vd#branch                                    0
vck#branch                                   0
vvss#branch                        5.74384e-38
vvdd#branch                        2.91995e-38


No. of Data Rows : 40575
tt__rn_rise         =  3.020730e-11 targ=  3.045133e-07 trig=  3.044831e-07
tt__ck_rise         =  3.087323e-11 targ=  3.050449e-07 trig=  3.050141e-07
td__rn_rise__ck_rise=  5.314400e-10 targ=  3.050297e-07 trig=  3.044983e-07
q_voltage           =  5.000000e+00
tt__ck_rise: 3.08732E-11
tt__rn_rise: 3.02073E-11
td__rn_rise__ck_rise: 5.3144E-10
q_voltage: 5
captured: 1
captured increase delay
this t_rndelay: 1.94712E-08
next t_rndelay: 1.98618E-08
incr: 3.90625E-10
end of while: search: 1
start of while: search: 1
iteration: 11
Doing analysis at TEMP = 27.000000 and TNOM = 27.000000

Note: Starting true gmin stepping
Trying gmin =   1.0000E-03 Warning: Further gmin increment
Trying gmin =   5.6234E-03 Warning: Further gmin increment
Trying gmin =   8.6596E-03 Warning: Further gmin increment
Trying gmin =   9.6466E-03 Warning: Further gmin increment
Trying gmin =   9.9105E-03 Warning: Further gmin increment
Trying gmin =   9.9775E-03 Warning: Further gmin increment
Trying gmin =   9.9944E-03 Warning: Further gmin increment
Trying gmin =   9.9986E-03 Warning: Further gmin increment
Trying gmin =   9.9996E-03 Warning: Last gmin step failed
Warning: True gmin stepping failed
Note: Starting dynamic gmin stepping
Trying gmin =   1.0000E-03 Note: One successful gmin step
Trying gmin =   1.0000E-04 Note: One successful gmin step
Trying gmin =   1.0000E-05 Note: One successful gmin step
Trying gmin =   1.0000E-06 Note: One successful gmin step
Trying gmin =   1.0000E-07 Note: One successful gmin step
Trying gmin =   1.0000E-08 Note: One successful gmin step
Trying gmin =   1.0000E-09 Note: One successful gmin step
Trying gmin =   1.0000E-10 Note: One successful gmin step
Trying gmin =   1.0000E-11 Note: One successful gmin step
Trying gmin =   1.0000E-12 Note: One successful gmin step
Trying gmin =   1.0000E-12 Note: One successful gmin step
Note: Dynamic gmin stepping completed

Initial Transient Solution
--------------------------

Node                                   Voltage
----                                   -------
vdd                                          0
vss                                          0
ck_s                                         0
ck                                           0
d_s                                          5
d                                            5
rn_s                                         5
rn                                           5
xdut.x7                            2.81559e-55
xdut.nslv                         -7.66091e-67
xdut.x4                           -1.40094e-55
xdut.nck                           7.80824e-67
xdut.nmas                         -2.81548e-58
xdut.x1                            1.84633e-58
xdut.mas                           7.18739e-56
xdut.x6                           -1.22387e-59
xdut.slv                           2.75581e-56
xdut.rst                           2.82302e-26
q                                  7.73197e-67
xdut.x2                           -1.37155e-60
xdut.x5                            4.09221e-67
xdut.x8                            1.50858e-58
xdut.x3                           -3.15911e-55
vrn#branch                                   0
vd#branch                                    0
vck#branch                                   0
vvss#branch                        5.74384e-38
vvdd#branch                        2.91995e-38


No. of Data Rows : 40575
tt__rn_rise         =  3.020730e-11 targ=  3.049043e-07 trig=  3.048741e-07
tt__ck_rise         =  3.086757e-11 targ=  3.050450e-07 trig=  3.050141e-07
td__rn_rise__ck_rise=  1.404051e-10 targ=  3.050297e-07 trig=  3.048893e-07
q_voltage           =  1.101726e-08
tt__ck_rise: 3.08676E-11
tt__rn_rise: 3.02073E-11
td__rn_rise__ck_rise: 1.40405E-10
q_voltage: 1.10173E-08
captured: 0
not captured step back delay
this t_rndelay: 1.98618E-08
next t_rndelay: 1.96565E-08
incr: 1.95312E-10
end of while: search: 1
start of while: search: 1
iteration: 12
Doing analysis at TEMP = 27.000000 and TNOM = 27.000000

Note: Starting true gmin stepping
Trying gmin =   1.0000E-03 Warning: Further gmin increment
Trying gmin =   5.6234E-03 Warning: Further gmin increment
Trying gmin =   8.6596E-03 Warning: Further gmin increment
Trying gmin =   9.6466E-03 Warning: Further gmin increment
Trying gmin =   9.9105E-03 Warning: Further gmin increment
Trying gmin =   9.9775E-03 Warning: Further gmin increment
Trying gmin =   9.9944E-03 Warning: Further gmin increment
Trying gmin =   9.9986E-03 Warning: Further gmin increment
Trying gmin =   9.9996E-03 Warning: Last gmin step failed
Warning: True gmin stepping failed
Note: Starting dynamic gmin stepping
Trying gmin =   1.0000E-03 Note: One successful gmin step
Trying gmin =   1.0000E-04 Note: One successful gmin step
Trying gmin =   1.0000E-05 Note: One successful gmin step
Trying gmin =   1.0000E-06 Note: One successful gmin step
Trying gmin =   1.0000E-07 Note: One successful gmin step
Trying gmin =   1.0000E-08 Note: One successful gmin step
Trying gmin =   1.0000E-09 Note: One successful gmin step
Trying gmin =   1.0000E-10 Note: One successful gmin step
Trying gmin =   1.0000E-11 Note: One successful gmin step
Trying gmin =   1.0000E-12 Note: One successful gmin step
Trying gmin =   1.0000E-12 Note: One successful gmin step
Note: Dynamic gmin stepping completed

Initial Transient Solution
--------------------------

Node                                   Voltage
----                                   -------
vdd                                          0
vss                                          0
ck_s                                         0
ck                                           0
d_s                                          5
d                                            5
rn_s                                         5
rn                                           5
xdut.x7                            2.81559e-55
xdut.nslv                         -7.66091e-67
xdut.x4                           -1.40094e-55
xdut.nck                           7.80824e-67
xdut.nmas                         -2.81548e-58
xdut.x1                            1.84633e-58
xdut.mas                           7.18739e-56
xdut.x6                           -1.22387e-59
xdut.slv                           2.75581e-56
xdut.rst                           2.82302e-26
q                                  7.73197e-67
xdut.x2                           -1.37155e-60
xdut.x5                            4.09221e-67
xdut.x8                            1.50858e-58
xdut.x3                           -3.15911e-55
vrn#branch                                   0
vd#branch                                    0
vck#branch                                   0
vvss#branch                        5.74384e-38
vvdd#branch                        2.91995e-38


No. of Data Rows : 40575
tt__rn_rise         =  3.020730e-11 targ=  3.046993e-07 trig=  3.046691e-07
tt__ck_rise         =  3.086601e-11 targ=  3.050449e-07 trig=  3.050141e-07
td__rn_rise__ck_rise=  3.454356e-10 targ=  3.050297e-07 trig=  3.046843e-07
q_voltage           =  5.000000e+00
tt__ck_rise: 3.0866E-11
tt__rn_rise: 3.02073E-11
td__rn_rise__ck_rise: 3.45436E-10
q_voltage: 5
captured: 1
captured increase delay
this t_rndelay: 1.96565E-08
next t_rndelay: 1.97542E-08
incr: 9.76562E-11
end of while: search: 1
start of while: search: 1
iteration: 13
Doing analysis at TEMP = 27.000000 and TNOM = 27.000000

Note: Starting true gmin stepping
Trying gmin =   1.0000E-03 Warning: Further gmin increment
Trying gmin =   5.6234E-03 Warning: Further gmin increment
Trying gmin =   8.6596E-03 Warning: Further gmin increment
Trying gmin =   9.6466E-03 Warning: Further gmin increment
Trying gmin =   9.9105E-03 Warning: Further gmin increment
Trying gmin =   9.9775E-03 Warning: Further gmin increment
Trying gmin =   9.9944E-03 Warning: Further gmin increment
Trying gmin =   9.9986E-03 Warning: Further gmin increment
Trying gmin =   9.9996E-03 Warning: Last gmin step failed
Warning: True gmin stepping failed
Note: Starting dynamic gmin stepping
Trying gmin =   1.0000E-03 Note: One successful gmin step
Trying gmin =   1.0000E-04 Note: One successful gmin step
Trying gmin =   1.0000E-05 Note: One successful gmin step
Trying gmin =   1.0000E-06 Note: One successful gmin step
Trying gmin =   1.0000E-07 Note: One successful gmin step
Trying gmin =   1.0000E-08 Note: One successful gmin step
Trying gmin =   1.0000E-09 Note: One successful gmin step
Trying gmin =   1.0000E-10 Note: One successful gmin step
Trying gmin =   1.0000E-11 Note: One successful gmin step
Trying gmin =   1.0000E-12 Note: One successful gmin step
Trying gmin =   1.0000E-12 Note: One successful gmin step
Note: Dynamic gmin stepping completed

Initial Transient Solution
--------------------------

Node                                   Voltage
----                                   -------
vdd                                          0
vss                                          0
ck_s                                         0
ck                                           0
d_s                                          5
d                                            5
rn_s                                         5
rn                                           5
xdut.x7                            2.81559e-55
xdut.nslv                         -7.66091e-67
xdut.x4                           -1.40094e-55
xdut.nck                           7.80824e-67
xdut.nmas                         -2.81548e-58
xdut.x1                            1.84633e-58
xdut.mas                           7.18739e-56
xdut.x6                           -1.22387e-59
xdut.slv                           2.75581e-56
xdut.rst                           2.82302e-26
q                                  7.73197e-67
xdut.x2                           -1.37155e-60
xdut.x5                            4.09221e-67
xdut.x8                            1.50858e-58
xdut.x3                           -3.15911e-55
vrn#branch                                   0
vd#branch                                    0
vck#branch                                   0
vvss#branch                        5.74384e-38
vvdd#branch                        2.91995e-38


No. of Data Rows : 40575
tt__rn_rise         =  3.020730e-11 targ=  3.047963e-07 trig=  3.047661e-07
tt__ck_rise         =  3.086569e-11 targ=  3.050450e-07 trig=  3.050141e-07
td__rn_rise__ck_rise=  2.484177e-10 targ=  3.050297e-07 trig=  3.047813e-07
q_voltage           =  5.000000e+00
tt__ck_rise: 3.08657E-11
tt__rn_rise: 3.02073E-11
td__rn_rise__ck_rise: 2.48418E-10
q_voltage: 5
captured: 1
captured increase delay
this t_rndelay: 1.97542E-08
next t_rndelay: 1.98519E-08
incr: 9.76562E-11
end of while: search: 1
start of while: search: 1
iteration: 14
Doing analysis at TEMP = 27.000000 and TNOM = 27.000000

Note: Starting true gmin stepping
Trying gmin =   1.0000E-03 Warning: Further gmin increment
Trying gmin =   5.6234E-03 Warning: Further gmin increment
Trying gmin =   8.6596E-03 Warning: Further gmin increment
Trying gmin =   9.6466E-03 Warning: Further gmin increment
Trying gmin =   9.9105E-03 Warning: Further gmin increment
Trying gmin =   9.9775E-03 Warning: Further gmin increment
Trying gmin =   9.9944E-03 Warning: Further gmin increment
Trying gmin =   9.9986E-03 Warning: Further gmin increment
Trying gmin =   9.9996E-03 Warning: Last gmin step failed
Warning: True gmin stepping failed
Note: Starting dynamic gmin stepping
Trying gmin =   1.0000E-03 Note: One successful gmin step
Trying gmin =   1.0000E-04 Note: One successful gmin step
Trying gmin =   1.0000E-05 Note: One successful gmin step
Trying gmin =   1.0000E-06 Note: One successful gmin step
Trying gmin =   1.0000E-07 Note: One successful gmin step
Trying gmin =   1.0000E-08 Note: One successful gmin step
Trying gmin =   1.0000E-09 Note: One successful gmin step
Trying gmin =   1.0000E-10 Note: One successful gmin step
Trying gmin =   1.0000E-11 Note: One successful gmin step
Trying gmin =   1.0000E-12 Note: One successful gmin step
Trying gmin =   1.0000E-12 Note: One successful gmin step
Note: Dynamic gmin stepping completed

Initial Transient Solution
--------------------------

Node                                   Voltage
----                                   -------
vdd                                          0
vss                                          0
ck_s                                         0
ck                                           0
d_s                                          5
d                                            5
rn_s                                         5
rn                                           5
xdut.x7                            2.81559e-55
xdut.nslv                         -7.66091e-67
xdut.x4                           -1.40094e-55
xdut.nck                           7.80824e-67
xdut.nmas                         -2.81548e-58
xdut.x1                            1.84633e-58
xdut.mas                           7.18739e-56
xdut.x6                           -1.22387e-59
xdut.slv                           2.75581e-56
xdut.rst                           2.82302e-26
q                                  7.73197e-67
xdut.x2                           -1.37155e-60
xdut.x5                            4.09221e-67
xdut.x8                            1.50858e-58
xdut.x3                           -3.15911e-55
vrn#branch                                   0
vd#branch                                    0
vck#branch                                   0
vvss#branch                        5.74384e-38
vvdd#branch                        2.91995e-38


No. of Data Rows : 40575
tt__rn_rise         =  3.020730e-11 targ=  3.048943e-07 trig=  3.048641e-07
tt__ck_rise         =  3.086044e-11 targ=  3.050449e-07 trig=  3.050141e-07
td__rn_rise__ck_rise=  1.503979e-10 targ=  3.050297e-07 trig=  3.048793e-07
q_voltage           =  1.101726e-08
tt__ck_rise: 3.08604E-11
tt__rn_rise: 3.02073E-11
td__rn_rise__ck_rise: 1.50398E-10
q_voltage: 1.10173E-08
captured: 0
not captured step back delay
this t_rndelay: 1.98519E-08
next t_rndelay: 1.97931E-08
incr: 4.88281E-11
end of while: search: 1
start of while: search: 1
iteration: 15
Doing analysis at TEMP = 27.000000 and TNOM = 27.000000

Note: Starting true gmin stepping
Trying gmin =   1.0000E-03 Warning: Further gmin increment
Trying gmin =   5.6234E-03 Warning: Further gmin increment
Trying gmin =   8.6596E-03 Warning: Further gmin increment
Trying gmin =   9.6466E-03 Warning: Further gmin increment
Trying gmin =   9.9105E-03 Warning: Further gmin increment
Trying gmin =   9.9775E-03 Warning: Further gmin increment
Trying gmin =   9.9944E-03 Warning: Further gmin increment
Trying gmin =   9.9986E-03 Warning: Further gmin increment
Trying gmin =   9.9996E-03 Warning: Last gmin step failed
Warning: True gmin stepping failed
Note: Starting dynamic gmin stepping
Trying gmin =   1.0000E-03 Note: One successful gmin step
Trying gmin =   1.0000E-04 Note: One successful gmin step
Trying gmin =   1.0000E-05 Note: One successful gmin step
Trying gmin =   1.0000E-06 Note: One successful gmin step
Trying gmin =   1.0000E-07 Note: One successful gmin step
Trying gmin =   1.0000E-08 Note: One successful gmin step
Trying gmin =   1.0000E-09 Note: One successful gmin step
Trying gmin =   1.0000E-10 Note: One successful gmin step
Trying gmin =   1.0000E-11 Note: One successful gmin step
Trying gmin =   1.0000E-12 Note: One successful gmin step
Trying gmin =   1.0000E-12 Note: One successful gmin step
Note: Dynamic gmin stepping completed

Initial Transient Solution
--------------------------

Node                                   Voltage
----                                   -------
vdd                                          0
vss                                          0
ck_s                                         0
ck                                           0
d_s                                          5
d                                            5
rn_s                                         5
rn                                           5
xdut.x7                            2.81559e-55
xdut.nslv                         -7.66091e-67
xdut.x4                           -1.40094e-55
xdut.nck                           7.80824e-67
xdut.nmas                         -2.81548e-58
xdut.x1                            1.84633e-58
xdut.mas                           7.18739e-56
xdut.x6                           -1.22387e-59
xdut.slv                           2.75581e-56
xdut.rst                           2.82302e-26
q                                  7.73197e-67
xdut.x2                           -1.37155e-60
xdut.x5                            4.09221e-67
xdut.x8                            1.50858e-58
xdut.x3                           -3.15911e-55
vrn#branch                                   0
vd#branch                                    0
vck#branch                                   0
vvss#branch                        5.74384e-38
vvdd#branch                        2.91995e-38


No. of Data Rows : 40575
tt__rn_rise         =  3.020730e-11 targ=  3.048353e-07 trig=  3.048051e-07
tt__ck_rise         =  3.085153e-11 targ=  3.050449e-07 trig=  3.050141e-07
td__rn_rise__ck_rise=  2.093872e-10 targ=  3.050297e-07 trig=  3.048203e-07
q_voltage           =  5.000000e+00
tt__ck_rise: 3.08515E-11
tt__rn_rise: 3.02073E-11
td__rn_rise__ck_rise: 2.09387E-10
q_voltage: 5
captured: 1
captured increase delay
this t_rndelay: 1.97931E-08
next t_rndelay: 1.98175E-08
incr: 2.44141E-11
end of while: search: 1
start of while: search: 1
iteration: 16
Doing analysis at TEMP = 27.000000 and TNOM = 27.000000

Note: Starting true gmin stepping
Trying gmin =   1.0000E-03 Warning: Further gmin increment
Trying gmin =   5.6234E-03 Warning: Further gmin increment
Trying gmin =   8.6596E-03 Warning: Further gmin increment
Trying gmin =   9.6466E-03 Warning: Further gmin increment
Trying gmin =   9.9105E-03 Warning: Further gmin increment
Trying gmin =   9.9775E-03 Warning: Further gmin increment
Trying gmin =   9.9944E-03 Warning: Further gmin increment
Trying gmin =   9.9986E-03 Warning: Further gmin increment
Trying gmin =   9.9996E-03 Warning: Last gmin step failed
Warning: True gmin stepping failed
Note: Starting dynamic gmin stepping
Trying gmin =   1.0000E-03 Note: One successful gmin step
Trying gmin =   1.0000E-04 Note: One successful gmin step
Trying gmin =   1.0000E-05 Note: One successful gmin step
Trying gmin =   1.0000E-06 Note: One successful gmin step
Trying gmin =   1.0000E-07 Note: One successful gmin step
Trying gmin =   1.0000E-08 Note: One successful gmin step
Trying gmin =   1.0000E-09 Note: One successful gmin step
Trying gmin =   1.0000E-10 Note: One successful gmin step
Trying gmin =   1.0000E-11 Note: One successful gmin step
Trying gmin =   1.0000E-12 Note: One successful gmin step
Trying gmin =   1.0000E-12 Note: One successful gmin step
Note: Dynamic gmin stepping completed

Initial Transient Solution
--------------------------

Node                                   Voltage
----                                   -------
vdd                                          0
vss                                          0
ck_s                                         0
ck                                           0
d_s                                          5
d                                            5
rn_s                                         5
rn                                           5
xdut.x7                            2.81559e-55
xdut.nslv                         -7.66091e-67
xdut.x4                           -1.40094e-55
xdut.nck                           7.80824e-67
xdut.nmas                         -2.81548e-58
xdut.x1                            1.84633e-58
xdut.mas                           7.18739e-56
xdut.x6                           -1.22387e-59
xdut.slv                           2.75581e-56
xdut.rst                           2.82302e-26
q                                  7.73197e-67
xdut.x2                           -1.37155e-60
xdut.x5                            4.09221e-67
xdut.x8                            1.50858e-58
xdut.x3                           -3.15911e-55
vrn#branch                                   0
vd#branch                                    0
vck#branch                                   0
vvss#branch                        5.74384e-38
vvdd#branch                        2.91995e-38


No. of Data Rows : 40575
tt__rn_rise         =  3.020730e-11 targ=  3.048603e-07 trig=  3.048301e-07
tt__ck_rise         =  3.084794e-11 targ=  3.050449e-07 trig=  3.050141e-07
td__rn_rise__ck_rise=  1.843834e-10 targ=  3.050297e-07 trig=  3.048453e-07
q_voltage           =  1.101726e-08
tt__ck_rise: 3.08479E-11
tt__rn_rise: 3.02073E-11
td__rn_rise__ck_rise: 1.84383E-10
q_voltage: 1.10173E-08
captured: 0
not captured step back delay
this t_rndelay: 1.98175E-08
next t_rndelay: 1.97953E-08
incr: 1.2207E-11
end of while: search: 1
start of while: search: 1
iteration: 17
Doing analysis at TEMP = 27.000000 and TNOM = 27.000000

Note: Starting true gmin stepping
Trying gmin =   1.0000E-03 Warning: Further gmin increment
Trying gmin =   5.6234E-03 Warning: Further gmin increment
Trying gmin =   8.6596E-03 Warning: Further gmin increment
Trying gmin =   9.6466E-03 Warning: Further gmin increment
Trying gmin =   9.9105E-03 Warning: Further gmin increment
Trying gmin =   9.9775E-03 Warning: Further gmin increment
Trying gmin =   9.9944E-03 Warning: Further gmin increment
Trying gmin =   9.9986E-03 Warning: Further gmin increment
Trying gmin =   9.9996E-03 Warning: Last gmin step failed
Warning: True gmin stepping failed
Note: Starting dynamic gmin stepping
Trying gmin =   1.0000E-03 Note: One successful gmin step
Trying gmin =   1.0000E-04 Note: One successful gmin step
Trying gmin =   1.0000E-05 Note: One successful gmin step
Trying gmin =   1.0000E-06 Note: One successful gmin step
Trying gmin =   1.0000E-07 Note: One successful gmin step
Trying gmin =   1.0000E-08 Note: One successful gmin step
Trying gmin =   1.0000E-09 Note: One successful gmin step
Trying gmin =   1.0000E-10 Note: One successful gmin step
Trying gmin =   1.0000E-11 Note: One successful gmin step
Trying gmin =   1.0000E-12 Note: One successful gmin step
Trying gmin =   1.0000E-12 Note: One successful gmin step
Note: Dynamic gmin stepping completed

Initial Transient Solution
--------------------------

Node                                   Voltage
----                                   -------
vdd                                          0
vss                                          0
ck_s                                         0
ck                                           0
d_s                                          5
d                                            5
rn_s                                         5
rn                                           5
xdut.x7                            2.81559e-55
xdut.nslv                         -7.66091e-67
xdut.x4                           -1.40094e-55
xdut.nck                           7.80824e-67
xdut.nmas                         -2.81548e-58
xdut.x1                            1.84633e-58
xdut.mas                           7.18739e-56
xdut.x6                           -1.22387e-59
xdut.slv                           2.75581e-56
xdut.rst                           2.82302e-26
q                                  7.73197e-67
xdut.x2                           -1.37155e-60
xdut.x5                            4.09221e-67
xdut.x8                            1.50858e-58
xdut.x3                           -3.15911e-55
vrn#branch                                   0
vd#branch                                    0
vck#branch                                   0
vvss#branch                        5.74384e-38
vvdd#branch                        2.91995e-38


No. of Data Rows : 40576
tt__rn_rise         =  3.020730e-11 targ=  3.048373e-07 trig=  3.048071e-07
tt__ck_rise         =  3.085020e-11 targ=  3.050449e-07 trig=  3.050141e-07
td__rn_rise__ck_rise=  2.073866e-10 targ=  3.050297e-07 trig=  3.048223e-07
q_voltage           =  5.000000e+00
tt__ck_rise: 3.08502E-11
tt__rn_rise: 3.02073E-11
td__rn_rise__ck_rise: 2.07387E-10
q_voltage: 5
captured: 1
captured increase delay
this t_rndelay: 1.97953E-08
next t_rndelay: 1.98014E-08
incr: 6.10352E-12
end of while: search: 1
start of while: search: 1
iteration: 18
Doing analysis at TEMP = 27.000000 and TNOM = 27.000000

Note: Starting true gmin stepping
Trying gmin =   1.0000E-03 Warning: Further gmin increment
Trying gmin =   5.6234E-03 Warning: Further gmin increment
Trying gmin =   8.6596E-03 Warning: Further gmin increment
Trying gmin =   9.6466E-03 Warning: Further gmin increment
Trying gmin =   9.9105E-03 Warning: Further gmin increment
Trying gmin =   9.9775E-03 Warning: Further gmin increment
Trying gmin =   9.9944E-03 Warning: Further gmin increment
Trying gmin =   9.9986E-03 Warning: Further gmin increment
Trying gmin =   9.9996E-03 Warning: Last gmin step failed
Warning: True gmin stepping failed
Note: Starting dynamic gmin stepping
Trying gmin =   1.0000E-03 Note: One successful gmin step
Trying gmin =   1.0000E-04 Note: One successful gmin step
Trying gmin =   1.0000E-05 Note: One successful gmin step
Trying gmin =   1.0000E-06 Note: One successful gmin step
Trying gmin =   1.0000E-07 Note: One successful gmin step
Trying gmin =   1.0000E-08 Note: One successful gmin step
Trying gmin =   1.0000E-09 Note: One successful gmin step
Trying gmin =   1.0000E-10 Note: One successful gmin step
Trying gmin =   1.0000E-11 Note: One successful gmin step
Trying gmin =   1.0000E-12 Note: One successful gmin step
Trying gmin =   1.0000E-12 Note: One successful gmin step
Note: Dynamic gmin stepping completed

Initial Transient Solution
--------------------------

Node                                   Voltage
----                                   -------
vdd                                          0
vss                                          0
ck_s                                         0
ck                                           0
d_s                                          5
d                                            5
rn_s                                         5
rn                                           5
xdut.x7                            2.81559e-55
xdut.nslv                         -7.66091e-67
xdut.x4                           -1.40094e-55
xdut.nck                           7.80824e-67
xdut.nmas                         -2.81548e-58
xdut.x1                            1.84633e-58
xdut.mas                           7.18739e-56
xdut.x6                           -1.22387e-59
xdut.slv                           2.75581e-56
xdut.rst                           2.82302e-26
q                                  7.73197e-67
xdut.x2                           -1.37155e-60
xdut.x5                            4.09221e-67
xdut.x8                            1.50858e-58
xdut.x3                           -3.15911e-55
vrn#branch                                   0
vd#branch                                    0
vck#branch                                   0
vvss#branch                        5.74384e-38
vvdd#branch                        2.91995e-38


No. of Data Rows : 40575
tt__rn_rise         =  3.020730e-11 targ=  3.048433e-07 trig=  3.048131e-07
tt__ck_rise         =  3.084759e-11 targ=  3.050449e-07 trig=  3.050141e-07
td__rn_rise__ck_rise=  2.013850e-10 targ=  3.050297e-07 trig=  3.048283e-07
q_voltage           =  1.101820e-08
tt__ck_rise: 3.08476E-11
tt__rn_rise: 3.02073E-11
td__rn_rise__ck_rise: 2.01385E-10
q_voltage: 1.10182E-08
captured: 0
not captured step back delay
this t_rndelay: 1.98014E-08
next t_rndelay: 1.97883E-08
incr: 3.05176E-12
end of while: search: 1
start of while: search: 1
iteration: 19
Doing analysis at TEMP = 27.000000 and TNOM = 27.000000

Note: Starting true gmin stepping
Trying gmin =   1.0000E-03 Warning: Further gmin increment
Trying gmin =   5.6234E-03 Warning: Further gmin increment
Trying gmin =   8.6596E-03 Warning: Further gmin increment
Trying gmin =   9.6466E-03 Warning: Further gmin increment
Trying gmin =   9.9105E-03 Warning: Further gmin increment
Trying gmin =   9.9775E-03 Warning: Further gmin increment
Trying gmin =   9.9944E-03 Warning: Further gmin increment
Trying gmin =   9.9986E-03 Warning: Further gmin increment
Trying gmin =   9.9996E-03 Warning: Last gmin step failed
Warning: True gmin stepping failed
Note: Starting dynamic gmin stepping
Trying gmin =   1.0000E-03 Note: One successful gmin step
Trying gmin =   1.0000E-04 Note: One successful gmin step
Trying gmin =   1.0000E-05 Note: One successful gmin step
Trying gmin =   1.0000E-06 Note: One successful gmin step
Trying gmin =   1.0000E-07 Note: One successful gmin step
Trying gmin =   1.0000E-08 Note: One successful gmin step
Trying gmin =   1.0000E-09 Note: One successful gmin step
Trying gmin =   1.0000E-10 Note: One successful gmin step
Trying gmin =   1.0000E-11 Note: One successful gmin step
Trying gmin =   1.0000E-12 Note: One successful gmin step
Trying gmin =   1.0000E-12 Note: One successful gmin step
Note: Dynamic gmin stepping completed

Initial Transient Solution
--------------------------

Node                                   Voltage
----                                   -------
vdd                                          0
vss                                          0
ck_s                                         0
ck                                           0
d_s                                          5
d                                            5
rn_s                                         5
rn                                           5
xdut.x7                            2.81559e-55
xdut.nslv                         -7.66091e-67
xdut.x4                           -1.40094e-55
xdut.nck                           7.80824e-67
xdut.nmas                         -2.81548e-58
xdut.x1                            1.84633e-58
xdut.mas                           7.18739e-56
xdut.x6                           -1.22387e-59
xdut.slv                           2.75581e-56
xdut.rst                           2.82302e-26
q                                  7.73197e-67
xdut.x2                           -1.37155e-60
xdut.x5                            4.09221e-67
xdut.x8                            1.50858e-58
xdut.x3                           -3.15911e-55
vrn#branch                                   0
vd#branch                                    0
vck#branch                                   0
vvss#branch                        5.74384e-38
vvdd#branch                        2.91995e-38


No. of Data Rows : 40575
tt__rn_rise         =  3.020730e-11 targ=  3.048303e-07 trig=  3.048001e-07
tt__ck_rise         =  3.085584e-11 targ=  3.050449e-07 trig=  3.050141e-07
td__rn_rise__ck_rise=  2.143888e-10 targ=  3.050297e-07 trig=  3.048153e-07
q_voltage           =  5.000000e+00
tt__ck_rise: 3.08558E-11
tt__rn_rise: 3.02073E-11
td__rn_rise__ck_rise: 2.14389E-10
q_voltage: 5
captured: 1
search done after 19 iterations
removal: rn_rise__ck_rise 0 0 rn_rise: 3.02073E-11 ck_rise: 3.08558E-11 time: 2.14389E-10
end of while: search: 0
itr1: 1f
itr2: 500f
start of while: search: 1
iteration: 1
Doing analysis at TEMP = 27.000000 and TNOM = 27.000000

Note: Starting true gmin stepping
Trying gmin =   1.0000E-03 Warning: Further gmin increment
Trying gmin =   5.6234E-03 Warning: Further gmin increment
Trying gmin =   8.6596E-03 Warning: Further gmin increment
Trying gmin =   9.6466E-03 Warning: Further gmin increment
Trying gmin =   9.9105E-03 Warning: Further gmin increment
Trying gmin =   9.9775E-03 Warning: Further gmin increment
Trying gmin =   9.9944E-03 Warning: Further gmin increment
Trying gmin =   9.9986E-03 Warning: Further gmin increment
Trying gmin =   9.9996E-03 Warning: Last gmin step failed
Warning: True gmin stepping failed
Note: Starting dynamic gmin stepping
Trying gmin =   1.0000E-03 Note: One successful gmin step
Trying gmin =   1.0000E-04 Note: One successful gmin step
Trying gmin =   1.0000E-05 Note: One successful gmin step
Trying gmin =   1.0000E-06 Note: One successful gmin step
Trying gmin =   1.0000E-07 Note: One successful gmin step
Trying gmin =   1.0000E-08 Note: One successful gmin step
Trying gmin =   1.0000E-09 Note: One successful gmin step
Trying gmin =   1.0000E-10 Note: One successful gmin step
Trying gmin =   1.0000E-11 Note: One successful gmin step
Trying gmin =   1.0000E-12 Note: One successful gmin step
Trying gmin =   1.0000E-12 Note: One successful gmin step
Note: Dynamic gmin stepping completed

Initial Transient Solution
--------------------------

Node                                   Voltage
----                                   -------
vdd                                          0
vss                                          0
ck_s                                         0
ck                                           0
d_s                                          5
d                                            5
rn_s                                         5
rn                                           5
xdut.x7                            2.81559e-55
xdut.nslv                         -7.66091e-67
xdut.x4                           -1.40094e-55
xdut.nck                           7.80824e-67
xdut.nmas                         -2.81548e-58
xdut.x1                            1.84633e-58
xdut.mas                           7.18739e-56
xdut.x6                           -1.22387e-59
xdut.slv                           2.75581e-56
xdut.rst                           2.82302e-26
q                                  7.73197e-67
xdut.x2                           -1.37155e-60
xdut.x5                            4.09221e-67
xdut.x8                            1.50858e-58
xdut.x3                           -3.15911e-55
vrn#branch                                   0
vd#branch                                    0
vck#branch                                   0
vvss#branch                        5.74384e-38
vvdd#branch                        2.91995e-38


No. of Data Rows : 40576
tt__rn_rise         =  3.021405e-11 targ=  3.048303e-07 trig=  3.048001e-07
tt__ck_rise         =  7.945553e-11 targ=  3.051159e-07 trig=  3.050364e-07
td__rn_rise__ck_rise=  2.495013e-10 targ=  3.050648e-07 trig=  3.048153e-07
q_voltage           =  5.000000e+00
tt__ck_rise: 7.94555E-11
tt__rn_rise: 3.0214E-11
td__rn_rise__ck_rise: 2.49501E-10
q_voltage: 5
captured: 1
captured increase delay
this t_rndelay: 1.97883E-08
next t_rndelay: 4.47883E-08
incr: 2.5E-08
end of while: search: 1
start of while: search: 1
iteration: 2
Doing analysis at TEMP = 27.000000 and TNOM = 27.000000

Note: Starting true gmin stepping
Trying gmin =   1.0000E-03 Warning: Further gmin increment
Trying gmin =   5.6234E-03 Warning: Further gmin increment
Trying gmin =   8.6596E-03 Warning: Further gmin increment
Trying gmin =   9.6466E-03 Warning: Further gmin increment
Trying gmin =   9.9105E-03 Warning: Further gmin increment
Trying gmin =   9.9775E-03 Warning: Further gmin increment
Trying gmin =   9.9944E-03 Warning: Further gmin increment
Trying gmin =   9.9986E-03 Warning: Further gmin increment
Trying gmin =   9.9996E-03 Warning: Last gmin step failed
Warning: True gmin stepping failed
Note: Starting dynamic gmin stepping
Trying gmin =   1.0000E-03 Note: One successful gmin step
Trying gmin =   1.0000E-04 Note: One successful gmin step
Trying gmin =   1.0000E-05 Note: One successful gmin step
Trying gmin =   1.0000E-06 Note: One successful gmin step
Trying gmin =   1.0000E-07 Note: One successful gmin step
Trying gmin =   1.0000E-08 Note: One successful gmin step
Trying gmin =   1.0000E-09 Note: One successful gmin step
Trying gmin =   1.0000E-10 Note: One successful gmin step
Trying gmin =   1.0000E-11 Note: One successful gmin step
Trying gmin =   1.0000E-12 Note: One successful gmin step
Trying gmin =   1.0000E-12 Note: One successful gmin step
Note: Dynamic gmin stepping completed

Initial Transient Solution
--------------------------

Node                                   Voltage
----                                   -------
vdd                                          0
vss                                          0
ck_s                                         0
ck                                           0
d_s                                          5
d                                            5
rn_s                                         5
rn                                           5
xdut.x7                            2.81559e-55
xdut.nslv                         -7.66091e-67
xdut.x4                           -1.40094e-55
xdut.nck                           7.80824e-67
xdut.nmas                         -2.81548e-58
xdut.x1                            1.84633e-58
xdut.mas                           7.18739e-56
xdut.x6                           -1.22387e-59
xdut.slv                           2.75581e-56
xdut.rst                           2.82302e-26
q                                  7.73197e-67
xdut.x2                           -1.37155e-60
xdut.x5                            4.09221e-67
xdut.x8                            1.50858e-58
xdut.x3                           -3.15911e-55
vrn#branch                                   0
vd#branch                                    0
vck#branch                                   0
vvss#branch                        5.74384e-38
vvdd#branch                        2.91995e-38


No. of Data Rows : 40576
tt__rn_rise         =  3.023002e-11 targ=  3.298304e-07 trig=  3.298001e-07
tt__ck_rise         =  7.965785e-11 targ=  3.051161e-07 trig=  3.050364e-07
td__rn_rise__ck_rise=  -2.475053e-08 targ=  3.050648e-07 trig=  3.298153e-07
q_voltage           =  1.101769e-08
tt__ck_rise: 7.96578E-11
tt__rn_rise: 3.023E-11
td__rn_rise__ck_rise: -2.47505E-08
q_voltage: 1.10177E-08
captured: 0
not captured step back delay
this t_rndelay: 4.47883E-08
next t_rndelay: 3.22783E-08
incr: 1.25E-08
end of while: search: 1
start of while: search: 1
iteration: 3
Doing analysis at TEMP = 27.000000 and TNOM = 27.000000

Note: Starting true gmin stepping
Trying gmin =   1.0000E-03 Warning: Further gmin increment
Trying gmin =   5.6234E-03 Warning: Further gmin increment
Trying gmin =   8.6596E-03 Warning: Further gmin increment
Trying gmin =   9.6466E-03 Warning: Further gmin increment
Trying gmin =   9.9105E-03 Warning: Further gmin increment
Trying gmin =   9.9775E-03 Warning: Further gmin increment
Trying gmin =   9.9944E-03 Warning: Further gmin increment
Trying gmin =   9.9986E-03 Warning: Further gmin increment
Trying gmin =   9.9996E-03 Warning: Last gmin step failed
Warning: True gmin stepping failed
Note: Starting dynamic gmin stepping
Trying gmin =   1.0000E-03 Note: One successful gmin step
Trying gmin =   1.0000E-04 Note: One successful gmin step
Trying gmin =   1.0000E-05 Note: One successful gmin step
Trying gmin =   1.0000E-06 Note: One successful gmin step
Trying gmin =   1.0000E-07 Note: One successful gmin step
Trying gmin =   1.0000E-08 Note: One successful gmin step
Trying gmin =   1.0000E-09 Note: One successful gmin step
Trying gmin =   1.0000E-10 Note: One successful gmin step
Trying gmin =   1.0000E-11 Note: One successful gmin step
Trying gmin =   1.0000E-12 Note: One successful gmin step
Trying gmin =   1.0000E-12 Note: One successful gmin step
Note: Dynamic gmin stepping completed

Initial Transient Solution
--------------------------

Node                                   Voltage
----                                   -------
vdd                                          0
vss                                          0
ck_s                                         0
ck                                           0
d_s                                          5
d                                            5
rn_s                                         5
rn                                           5
xdut.x7                            2.81559e-55
xdut.nslv                         -7.66091e-67
xdut.x4                           -1.40094e-55
xdut.nck                           7.80824e-67
xdut.nmas                         -2.81548e-58
xdut.x1                            1.84633e-58
xdut.mas                           7.18739e-56
xdut.x6                           -1.22387e-59
xdut.slv                           2.75581e-56
xdut.rst                           2.82302e-26
q                                  7.73197e-67
xdut.x2                           -1.37155e-60
xdut.x5                            4.09221e-67
xdut.x8                            1.50858e-58
xdut.x3                           -3.15911e-55
vrn#branch                                   0
vd#branch                                    0
vck#branch                                   0
vvss#branch                        5.74384e-38
vvdd#branch                        2.91995e-38


No. of Data Rows : 40576
tt__rn_rise         =  3.023005e-11 targ=  3.173204e-07 trig=  3.172901e-07
tt__ck_rise         =  7.965785e-11 targ=  3.051161e-07 trig=  3.050364e-07
td__rn_rise__ck_rise=  -1.224053e-08 targ=  3.050648e-07 trig=  3.173053e-07
q_voltage           =  1.101768e-08
tt__ck_rise: 7.96578E-11
tt__rn_rise: 3.023E-11
td__rn_rise__ck_rise: -1.22405E-08
q_voltage: 1.10177E-08
captured: 0
not captured step back delay
this t_rndelay: 3.22783E-08
next t_rndelay: 1.97683E-08
incr: 1.25E-08
end of while: search: 1
start of while: search: 1
iteration: 4
Doing analysis at TEMP = 27.000000 and TNOM = 27.000000

Note: Starting true gmin stepping
Trying gmin =   1.0000E-03 Warning: Further gmin increment
Trying gmin =   5.6234E-03 Warning: Further gmin increment
Trying gmin =   8.6596E-03 Warning: Further gmin increment
Trying gmin =   9.6466E-03 Warning: Further gmin increment
Trying gmin =   9.9105E-03 Warning: Further gmin increment
Trying gmin =   9.9775E-03 Warning: Further gmin increment
Trying gmin =   9.9944E-03 Warning: Further gmin increment
Trying gmin =   9.9986E-03 Warning: Further gmin increment
Trying gmin =   9.9996E-03 Warning: Last gmin step failed
Warning: True gmin stepping failed
Note: Starting dynamic gmin stepping
Trying gmin =   1.0000E-03 Note: One successful gmin step
Trying gmin =   1.0000E-04 Note: One successful gmin step
Trying gmin =   1.0000E-05 Note: One successful gmin step
Trying gmin =   1.0000E-06 Note: One successful gmin step
Trying gmin =   1.0000E-07 Note: One successful gmin step
Trying gmin =   1.0000E-08 Note: One successful gmin step
Trying gmin =   1.0000E-09 Note: One successful gmin step
Trying gmin =   1.0000E-10 Note: One successful gmin step
Trying gmin =   1.0000E-11 Note: One successful gmin step
Trying gmin =   1.0000E-12 Note: One successful gmin step
Trying gmin =   1.0000E-12 Note: One successful gmin step
Note: Dynamic gmin stepping completed

Initial Transient Solution
--------------------------

Node                                   Voltage
----                                   -------
vdd                                          0
vss                                          0
ck_s                                         0
ck                                           0
d_s                                          5
d                                            5
rn_s                                         5
rn                                           5
xdut.x7                            2.81559e-55
xdut.nslv                         -7.66091e-67
xdut.x4                           -1.40094e-55
xdut.nck                           7.80824e-67
xdut.nmas                         -2.81548e-58
xdut.x1                            1.84633e-58
xdut.mas                           7.18739e-56
xdut.x6                           -1.22387e-59
xdut.slv                           2.75581e-56
xdut.rst                           2.82302e-26
q                                  7.73197e-67
xdut.x2                           -1.37155e-60
xdut.x5                            4.09221e-67
xdut.x8                            1.50858e-58
xdut.x3                           -3.15911e-55
vrn#branch                                   0
vd#branch                                    0
vck#branch                                   0
vvss#branch                        5.74384e-38
vvdd#branch                        2.91995e-38


No. of Data Rows : 40576
tt__rn_rise         =  3.021405e-11 targ=  3.048103e-07 trig=  3.047801e-07
tt__ck_rise         =  7.943095e-11 targ=  3.051159e-07 trig=  3.050364e-07
td__rn_rise__ck_rise=  2.695107e-10 targ=  3.050648e-07 trig=  3.047953e-07
q_voltage           =  5.000000e+00
tt__ck_rise: 7.94309E-11
tt__rn_rise: 3.0214E-11
td__rn_rise__ck_rise: 2.69511E-10
q_voltage: 5
captured: 1
captured increase delay
this t_rndelay: 1.97683E-08
next t_rndelay: 2.60183E-08
incr: 6.25E-09
end of while: search: 1
start of while: search: 1
iteration: 5
Doing analysis at TEMP = 27.000000 and TNOM = 27.000000

Note: Starting true gmin stepping
Trying gmin =   1.0000E-03 Warning: Further gmin increment
Trying gmin =   5.6234E-03 Warning: Further gmin increment
Trying gmin =   8.6596E-03 Warning: Further gmin increment
Trying gmin =   9.6466E-03 Warning: Further gmin increment
Trying gmin =   9.9105E-03 Warning: Further gmin increment
Trying gmin =   9.9775E-03 Warning: Further gmin increment
Trying gmin =   9.9944E-03 Warning: Further gmin increment
Trying gmin =   9.9986E-03 Warning: Further gmin increment
Trying gmin =   9.9996E-03 Warning: Last gmin step failed
Warning: True gmin stepping failed
Note: Starting dynamic gmin stepping
Trying gmin =   1.0000E-03 Note: One successful gmin step
Trying gmin =   1.0000E-04 Note: One successful gmin step
Trying gmin =   1.0000E-05 Note: One successful gmin step
Trying gmin =   1.0000E-06 Note: One successful gmin step
Trying gmin =   1.0000E-07 Note: One successful gmin step
Trying gmin =   1.0000E-08 Note: One successful gmin step
Trying gmin =   1.0000E-09 Note: One successful gmin step
Trying gmin =   1.0000E-10 Note: One successful gmin step
Trying gmin =   1.0000E-11 Note: One successful gmin step
Trying gmin =   1.0000E-12 Note: One successful gmin step
Trying gmin =   1.0000E-12 Note: One successful gmin step
Note: Dynamic gmin stepping completed

Initial Transient Solution
--------------------------

Node                                   Voltage
----                                   -------
[...]
Trying gmin =   9.9944E-03 Warning: Further gmin increment
Trying gmin =   9.9986E-03 Warning: Further gmin increment
Trying gmin =   9.9996E-03 Warning: Last gmin step failed
Warning: True gmin stepping failed
Note: Starting dynamic gmin stepping
Trying gmin =   1.0000E-03 Note: One successful gmin step
Trying gmin =   1.0000E-04 Note: One successful gmin step
Trying gmin =   1.0000E-05 Note: One successful gmin step
Trying gmin =   1.0000E-06 Note: One successful gmin step
Trying gmin =   1.0000E-07 Note: One successful gmin step
Trying gmin =   1.0000E-08 Note: One successful gmin step
Trying gmin =   1.0000E-09 Note: One successful gmin step
Trying gmin =   1.0000E-10 Note: One successful gmin step
Trying gmin =   1.0000E-11 Note: One successful gmin step
Trying gmin =   1.0000E-12 Note: One successful gmin step
Trying gmin =   1.0000E-12 Note: One successful gmin step
Note: Dynamic gmin stepping completed

Initial Transient Solution
--------------------------

Node                                   Voltage
----                                   -------
vdd                                          0
vss                                          0
ck_s                                         0
ck                                           0
d_s                                          5
d                                            5
rn_s                                         5
rn                                           5
xdut.x7                            2.81559e-55
xdut.nslv                         -7.66091e-67
xdut.x4                           -1.40094e-55
xdut.nck                           7.80824e-67
xdut.nmas                         -2.81548e-58
xdut.x1                            1.84633e-58
xdut.mas                           7.18739e-56
xdut.x6                           -1.22387e-59
xdut.slv                           2.75581e-56
xdut.rst                           2.82302e-26
q                                  7.73197e-67
xdut.x2                           -1.37155e-60
xdut.x5                            4.09221e-67
xdut.x8                            1.50858e-58
xdut.x3                           -3.15911e-55
vrn#branch                                   0
vd#branch                                    0
vck#branch                                   0
vvss#branch                        5.74384e-38
vvdd#branch                        2.91995e-38


No. of Data Rows : 40579
tt__rn_rise         =  1.389839e-09 targ=  3.064765e-07 trig=  3.050867e-07
tt__ck_rise         =  1.394622e-09 targ=  3.066439e-07 trig=  3.052492e-07
td__rn_rise__ck_rise=  1.642184e-10 targ=  3.057221e-07 trig=  3.055579e-07
q_voltage           =  1.102968e-08
tt__ck_rise: 1.39462E-09
tt__rn_rise: 1.38984E-09
td__rn_rise__ck_rise: 1.64218E-10
q_voltage: 1.10297E-08
captured: 0
not captured step back delay
this t_rndelay: 1.98384E-08
next t_rndelay: 1.97796E-08
incr: 4.88281E-11
end of while: search: 1
start of while: search: 1
iteration: 17
Doing analysis at TEMP = 27.000000 and TNOM = 27.000000

Note: Starting true gmin stepping
Trying gmin =   1.0000E-03 Warning: Further gmin increment
Trying gmin =   5.6234E-03 Warning: Further gmin increment
Trying gmin =   8.6596E-03 Warning: Further gmin increment
Trying gmin =   9.6466E-03 Warning: Further gmin increment
Trying gmin =   9.9105E-03 Warning: Further gmin increment
Trying gmin =   9.9775E-03 Warning: Further gmin increment
Trying gmin =   9.9944E-03 Warning: Further gmin increment
Trying gmin =   9.9986E-03 Warning: Further gmin increment
Trying gmin =   9.9996E-03 Warning: Last gmin step failed
Warning: True gmin stepping failed
Note: Starting dynamic gmin stepping
Trying gmin =   1.0000E-03 Note: One successful gmin step
Trying gmin =   1.0000E-04 Note: One successful gmin step
Trying gmin =   1.0000E-05 Note: One successful gmin step
Trying gmin =   1.0000E-06 Note: One successful gmin step
Trying gmin =   1.0000E-07 Note: One successful gmin step
Trying gmin =   1.0000E-08 Note: One successful gmin step
Trying gmin =   1.0000E-09 Note: One successful gmin step
Trying gmin =   1.0000E-10 Note: One successful gmin step
Trying gmin =   1.0000E-11 Note: One successful gmin step
Trying gmin =   1.0000E-12 Note: One successful gmin step
Trying gmin =   1.0000E-12 Note: One successful gmin step
Note: Dynamic gmin stepping completed

Initial Transient Solution
--------------------------

Node                                   Voltage
----                                   -------
vdd                                          0
vss                                          0
ck_s                                         0
ck                                           0
d_s                                          5
d                                            5
rn_s                                         5
rn                                           5
xdut.x7                            2.81559e-55
xdut.nslv                         -7.66091e-67
xdut.x4                           -1.40094e-55
xdut.nck                           7.80824e-67
xdut.nmas                         -2.81548e-58
xdut.x1                            1.84633e-58
xdut.mas                           7.18739e-56
xdut.x6                           -1.22387e-59
xdut.slv                           2.75581e-56
xdut.rst                           2.82302e-26
q                                  7.73197e-67
xdut.x2                           -1.37155e-60
xdut.x5                            4.09221e-67
xdut.x8                            1.50858e-58
xdut.x3                           -3.15911e-55
vrn#branch                                   0
vd#branch                                    0
vck#branch                                   0
vvss#branch                        5.74384e-38
vvdd#branch                        2.91995e-38


No. of Data Rows : 40580
tt__rn_rise         =  1.389607e-09 targ=  3.064183e-07 trig=  3.050287e-07
tt__ck_rise         =  1.394549e-09 targ=  3.066438e-07 trig=  3.052492e-07
td__rn_rise__ck_rise=  2.222147e-10 targ=  3.057221e-07 trig=  3.054999e-07
q_voltage           =  1.102968e-08
tt__ck_rise: 1.39455E-09
tt__rn_rise: 1.38961E-09
td__rn_rise__ck_rise: 2.22215E-10
q_voltage: 1.10297E-08
captured: 0
not captured step back delay
this t_rndelay: 1.97796E-08
next t_rndelay: 1.97208E-08
incr: 4.88281E-11
end of while: search: 1
start of while: search: 1
iteration: 18
Doing analysis at TEMP = 27.000000 and TNOM = 27.000000

Note: Starting true gmin stepping
Trying gmin =   1.0000E-03 Warning: Further gmin increment
Trying gmin =   5.6234E-03 Warning: Further gmin increment
Trying gmin =   8.6596E-03 Warning: Further gmin increment
Trying gmin =   9.6466E-03 Warning: Further gmin increment
Trying gmin =   9.9105E-03 Warning: Further gmin increment
Trying gmin =   9.9775E-03 Warning: Further gmin increment
Trying gmin =   9.9944E-03 Warning: Further gmin increment
Trying gmin =   9.9986E-03 Warning: Further gmin increment
Trying gmin =   9.9996E-03 Warning: Last gmin step failed
Warning: True gmin stepping failed
Note: Starting dynamic gmin stepping
Trying gmin =   1.0000E-03 Note: One successful gmin step
Trying gmin =   1.0000E-04 Note: One successful gmin step
Trying gmin =   1.0000E-05 Note: One successful gmin step
Trying gmin =   1.0000E-06 Note: One successful gmin step
Trying gmin =   1.0000E-07 Note: One successful gmin step
Trying gmin =   1.0000E-08 Note: One successful gmin step
Trying gmin =   1.0000E-09 Note: One successful gmin step
Trying gmin =   1.0000E-10 Note: One successful gmin step
Trying gmin =   1.0000E-11 Note: One successful gmin step
Trying gmin =   1.0000E-12 Note: One successful gmin step
Trying gmin =   1.0000E-12 Note: One successful gmin step
Note: Dynamic gmin stepping completed

Initial Transient Solution
--------------------------

Node                                   Voltage
----                                   -------
vdd                                          0
vss                                          0
ck_s                                         0
ck                                           0
d_s                                          5
d                                            5
rn_s                                         5
rn                                           5
xdut.x7                            2.81559e-55
xdut.nslv                         -7.66091e-67
xdut.x4                           -1.40094e-55
xdut.nck                           7.80824e-67
xdut.nmas                         -2.81548e-58
xdut.x1                            1.84633e-58
xdut.mas                           7.18739e-56
xdut.x6                           -1.22387e-59
xdut.slv                           2.75581e-56
xdut.rst                           2.82302e-26
q                                  7.73197e-67
xdut.x2                           -1.37155e-60
xdut.x5                            4.09221e-67
xdut.x8                            1.50858e-58
xdut.x3                           -3.15911e-55
vrn#branch                                   0
vd#branch                                    0
vck#branch                                   0
vvss#branch                        5.74384e-38
vvdd#branch                        2.91995e-38


No. of Data Rows : 40579
tt__rn_rise         =  1.388762e-09 targ=  3.063585e-07 trig=  3.049697e-07
tt__ck_rise         =  1.394732e-09 targ=  3.066440e-07 trig=  3.052492e-07
td__rn_rise__ck_rise=  2.812073e-10 targ=  3.057221e-07 trig=  3.054409e-07
q_voltage           =  5.000000e+00
tt__ck_rise: 1.39473E-09
tt__rn_rise: 1.38876E-09
td__rn_rise__ck_rise: 2.81207E-10
q_voltage: 5
captured: 1
captured increase delay
this t_rndelay: 1.97208E-08
next t_rndelay: 1.97452E-08
incr: 2.44141E-11
end of while: search: 1
start of while: search: 1
iteration: 19
Doing analysis at TEMP = 27.000000 and TNOM = 27.000000

Note: Starting true gmin stepping
Trying gmin =   1.0000E-03 Warning: Further gmin increment
Trying gmin =   5.6234E-03 Warning: Further gmin increment
Trying gmin =   8.6596E-03 Warning: Further gmin increment
Trying gmin =   9.6466E-03 Warning: Further gmin increment
Trying gmin =   9.9105E-03 Warning: Further gmin increment
Trying gmin =   9.9775E-03 Warning: Further gmin increment
Trying gmin =   9.9944E-03 Warning: Further gmin increment
Trying gmin =   9.9986E-03 Warning: Further gmin increment
Trying gmin =   9.9996E-03 Warning: Last gmin step failed
Warning: True gmin stepping failed
Note: Starting dynamic gmin stepping
Trying gmin =   1.0000E-03 Note: One successful gmin step
Trying gmin =   1.0000E-04 Note: One successful gmin step
Trying gmin =   1.0000E-05 Note: One successful gmin step
Trying gmin =   1.0000E-06 Note: One successful gmin step
Trying gmin =   1.0000E-07 Note: One successful gmin step
Trying gmin =   1.0000E-08 Note: One successful gmin step
Trying gmin =   1.0000E-09 Note: One successful gmin step
Trying gmin =   1.0000E-10 Note: One successful gmin step
Trying gmin =   1.0000E-11 Note: One successful gmin step
Trying gmin =   1.0000E-12 Note: One successful gmin step
Trying gmin =   1.0000E-12 Note: One successful gmin step
Note: Dynamic gmin stepping completed

Initial Transient Solution
--------------------------

Node                                   Voltage
----                                   -------
vdd                                          0
vss                                          0
ck_s                                         0
ck                                           0
d_s                                          5
d                                            5
rn_s                                         5
rn                                           5
xdut.x7                            2.81559e-55
xdut.nslv                         -7.66091e-67
xdut.x4                           -1.40094e-55
xdut.nck                           7.80824e-67
xdut.nmas                         -2.81548e-58
xdut.x1                            1.84633e-58
xdut.mas                           7.18739e-56
xdut.x6                           -1.22387e-59
xdut.slv                           2.75581e-56
xdut.rst                           2.82302e-26
q                                  7.73197e-67
xdut.x2                           -1.37155e-60
xdut.x5                            4.09221e-67
xdut.x8                            1.50858e-58
xdut.x3                           -3.15911e-55
vrn#branch                                   0
vd#branch                                    0
vck#branch                                   0
vvss#branch                        5.74384e-38
vvdd#branch                        2.91995e-38


No. of Data Rows : 40577
tt__rn_rise         =  1.389053e-09 targ=  3.063828e-07 trig=  3.049937e-07
tt__ck_rise         =  1.394449e-09 targ=  3.066437e-07 trig=  3.052492e-07
td__rn_rise__ck_rise=  2.572197e-10 targ=  3.057221e-07 trig=  3.054649e-07
q_voltage           =  1.103087e-08
tt__ck_rise: 1.39445E-09
tt__rn_rise: 1.38905E-09
td__rn_rise__ck_rise: 2.5722E-10
q_voltage: 1.10309E-08
captured: 0
not captured step back delay
this t_rndelay: 1.97452E-08
next t_rndelay: 1.9723E-08
incr: 1.2207E-11
end of while: search: 1
start of while: search: 1
iteration: 20
Doing analysis at TEMP = 27.000000 and TNOM = 27.000000

Note: Starting true gmin stepping
Trying gmin =   1.0000E-03 Warning: Further gmin increment
Trying gmin =   5.6234E-03 Warning: Further gmin increment
Trying gmin =   8.6596E-03 Warning: Further gmin increment
Trying gmin =   9.6466E-03 Warning: Further gmin increment
Trying gmin =   9.9105E-03 Warning: Further gmin increment
Trying gmin =   9.9775E-03 Warning: Further gmin increment
Trying gmin =   9.9944E-03 Warning: Further gmin increment
Trying gmin =   9.9986E-03 Warning: Further gmin increment
Trying gmin =   9.9996E-03 Warning: Last gmin step failed
Warning: True gmin stepping failed
Note: Starting dynamic gmin stepping
Trying gmin =   1.0000E-03 Note: One successful gmin step
Trying gmin =   1.0000E-04 Note: One successful gmin step
Trying gmin =   1.0000E-05 Note: One successful gmin step
Trying gmin =   1.0000E-06 Note: One successful gmin step
Trying gmin =   1.0000E-07 Note: One successful gmin step
Trying gmin =   1.0000E-08 Note: One successful gmin step
Trying gmin =   1.0000E-09 Note: One successful gmin step
Trying gmin =   1.0000E-10 Note: One successful gmin step
Trying gmin =   1.0000E-11 Note: One successful gmin step
Trying gmin =   1.0000E-12 Note: One successful gmin step
Trying gmin =   1.0000E-12 Note: One successful gmin step
Note: Dynamic gmin stepping completed

Initial Transient Solution
--------------------------

Node                                   Voltage
----                                   -------
vdd                                          0
vss                                          0
ck_s                                         0
ck                                           0
d_s                                          5
d                                            5
rn_s                                         5
rn                                           5
xdut.x7                            2.81559e-55
xdut.nslv                         -7.66091e-67
xdut.x4                           -1.40094e-55
xdut.nck                           7.80824e-67
xdut.nmas                         -2.81548e-58
xdut.x1                            1.84633e-58
xdut.mas                           7.18739e-56
xdut.x6                           -1.22387e-59
xdut.slv                           2.75581e-56
xdut.rst                           2.82302e-26
q                                  7.73197e-67
xdut.x2                           -1.37155e-60
xdut.x5                            4.09221e-67
xdut.x8                            1.50858e-58
xdut.x3                           -3.15911e-55
vrn#branch                                   0
vd#branch                                    0
vck#branch                                   0
vvss#branch                        5.74384e-38
vvdd#branch                        2.91995e-38


No. of Data Rows : 40579
tt__rn_rise         =  1.388774e-09 targ=  3.063605e-07 trig=  3.049717e-07
tt__ck_rise         =  1.394738e-09 targ=  3.066440e-07 trig=  3.052493e-07
td__rn_rise__ck_rise=  2.792152e-10 targ=  3.057221e-07 trig=  3.054429e-07
q_voltage           =  5.000000e+00
tt__ck_rise: 1.39474E-09
tt__rn_rise: 1.38877E-09
td__rn_rise__ck_rise: 2.79215E-10
q_voltage: 5
captured: 1
captured increase delay
this t_rndelay: 1.9723E-08
next t_rndelay: 1.97291E-08
incr: 6.10352E-12
end of while: search: 1
start of while: search: 1
iteration: 21
Doing analysis at TEMP = 27.000000 and TNOM = 27.000000

Note: Starting true gmin stepping
Trying gmin =   1.0000E-03 Warning: Further gmin increment
Trying gmin =   5.6234E-03 Warning: Further gmin increment
Trying gmin =   8.6596E-03 Warning: Further gmin increment
Trying gmin =   9.6466E-03 Warning: Further gmin increment
Trying gmin =   9.9105E-03 Warning: Further gmin increment
Trying gmin =   9.9775E-03 Warning: Further gmin increment
Trying gmin =   9.9944E-03 Warning: Further gmin increment
Trying gmin =   9.9986E-03 Warning: Further gmin increment
Trying gmin =   9.9996E-03 Warning: Last gmin step failed
Warning: True gmin stepping failed
Note: Starting dynamic gmin stepping
Trying gmin =   1.0000E-03 Note: One successful gmin step
Trying gmin =   1.0000E-04 Note: One successful gmin step
Trying gmin =   1.0000E-05 Note: One successful gmin step
Trying gmin =   1.0000E-06 Note: One successful gmin step
Trying gmin =   1.0000E-07 Note: One successful gmin step
Trying gmin =   1.0000E-08 Note: One successful gmin step
Trying gmin =   1.0000E-09 Note: One successful gmin step
Trying gmin =   1.0000E-10 Note: One successful gmin step
Trying gmin =   1.0000E-11 Note: One successful gmin step
Trying gmin =   1.0000E-12 Note: One successful gmin step
Trying gmin =   1.0000E-12 Note: One successful gmin step
Note: Dynamic gmin stepping completed

Initial Transient Solution
--------------------------

Node                                   Voltage
----                                   -------
vdd                                          0
vss                                          0
ck_s                                         0
ck                                           0
d_s                                          5
d                                            5
rn_s                                         5
rn                                           5
xdut.x7                            2.81559e-55
xdut.nslv                         -7.66091e-67
xdut.x4                           -1.40094e-55
xdut.nck                           7.80824e-67
xdut.nmas                         -2.81548e-58
xdut.x1                            1.84633e-58
xdut.mas                           7.18739e-56
xdut.x6                           -1.22387e-59
xdut.slv                           2.75581e-56
xdut.rst                           2.82302e-26
q                                  7.73197e-67
xdut.x2                           -1.37155e-60
xdut.x5                            4.09221e-67
xdut.x8                            1.50858e-58
xdut.x3                           -3.15911e-55
vrn#branch                                   0
vd#branch                                    0
vck#branch                                   0
vvss#branch                        5.74384e-38
vvdd#branch                        2.91995e-38


No. of Data Rows : 40579
tt__rn_rise         =  1.388813e-09 targ=  3.063665e-07 trig=  3.049777e-07
tt__ck_rise         =  1.394745e-09 targ=  3.066440e-07 trig=  3.052492e-07
td__rn_rise__ck_rise=  2.732000e-10 targ=  3.057221e-07 trig=  3.054489e-07
q_voltage           =  5.000000e+00
tt__ck_rise: 1.39475E-09
tt__rn_rise: 1.38881E-09
td__rn_rise__ck_rise: 2.732E-10
q_voltage: 5
captured: 1
search done after 21 iterations
removal: rn_rise__ck_rise 5 5 rn_rise: 1.38881E-09 ck_rise: 1.39475E-09 time: 2.732E-10
end of while: search: 0
ngspice-34+ done
